[Format]      =  4.0
[Frequency]   =  50
[Precision]   =  1e-008
[MinAngle]    =  30
[DoSmartMesh] =  1
[Depth]       =  0.036499999999999998
[LengthUnits] =  meters
[ProblemType] =  planar
[Coordinates] =  cartesian
[ACSolver]    =  0
[PrevType]    =  0
[PrevSoln]    =  ""
[Comment]     =  "Add comments here."
[PointProps]   = 0
[BdryProps]   = 1
  <BeginBdry>
    <BdryName> = "Granice"
    <BdryType> = 0
    <A_0> = 0
    <A_1> = 0
    <A_2> = 0
    <Phi> = 0
    <c0> = 0
    <c0i> = 0
    <c1> = 0
    <c1i> = 0
    <Mu_ssd> = 0
    <Sigma_ssd> = 0
    <innerangle> = 0
    <outerangle> = 0
  <EndBdry>
[BlockProps]  = 5
  <BeginBlock>
    <BlockName> = "Air"
    <Mu_x> = 1
    <Mu_y> = 1
    <H_c> = 0
    <H_cAngle> = 0
    <J_re> = 0
    <J_im> = 0
    <Sigma> = 0
    <d_lam> = 0
    <Phi_h> = 0
    <Phi_hx> = 0
    <Phi_hy> = 0
    <LamType> = 0
    <LamFill> = 1
    <NStrands> = 0
    <WireD> = 0
    <BHPoints> = 0
  <EndBlock>
  <BeginBlock>
    <BlockName> = "Rdzen"
    <Mu_x> = 1800
    <Mu_y> = 1800
    <H_c> = 0
    <H_cAngle> = 0
    <J_re> = 0
    <J_im> = 0
    <Sigma> = 0
    <d_lam> = 0
    <Phi_h> = 0
    <Phi_hx> = 0
    <Phi_hy> = 0
    <LamType> = 0
    <LamFill> = 1
    <NStrands> = 0
    <WireD> = 0
    <BHPoints> = 0
  <EndBlock>
  <BeginBlock>
    <BlockName> = "16 AWG"
    <Mu_x> = 1
    <Mu_y> = 1
    <H_c> = 0
    <H_cAngle> = 0
    <J_re> = 0
    <J_im> = 0
    <Sigma> = 58
    <d_lam> = 0
    <Phi_h> = 0
    <Phi_hx> = 0
    <Phi_hy> = 0
    <LamType> = 3
    <LamFill> = 1
    <NStrands> = 1
    <WireD> = 1.2911827701741401
    <BHPoints> = 0
  <EndBlock>
  <BeginBlock>
    <BlockName> = "N40"
    <Mu_x> = 1.05
    <Mu_y> = 1.05
    <H_c> = 969969
    <H_cAngle> = 0
    <J_re> = 0
    <J_im> = 0
    <Sigma> = 0.66700000000000004
    <d_lam> = 0
    <Phi_h> = 0
    <Phi_hx> = 0
    <Phi_hy> = 0
    <LamType> = 0
    <LamFill> = 1
    <NStrands> = 0
    <WireD> = 0
    <BHPoints> = 0
  <EndBlock>
  <BeginBlock>
    <BlockName> = "14 AWG"
    <Mu_x> = 1
    <Mu_y> = 1
    <H_c> = 0
    <H_cAngle> = 0
    <J_re> = 0
    <J_im> = 0
    <Sigma> = 58
    <d_lam> = 0
    <Phi_h> = 0
    <Phi_hx> = 0
    <Phi_hy> = 0
    <LamType> = 3
    <LamFill> = 1
    <NStrands> = 1
    <WireD> = 1.62813422596841
    <BHPoints> = 0
  <EndBlock>
[CircuitProps]  = 2
  <BeginCircuit>
    <CircuitName> = "Pierwotne"
    <TotalAmps_re> = 0.46000000000000002
    <TotalAmps_im> = 0
    <CircuitType> = 1
  <EndCircuit>
  <BeginCircuit>
    <CircuitName> = "Wtorne"
    <TotalAmps_re> = 0
    <TotalAmps_im> = 0
    <CircuitType> = 1
  <EndCircuit>
[NumPoints] = 36
40	11	0	0
40	9.5999999999999996	0	0
40.200000000000003	10.800000000000001	0	0
40.200000000000003	9.8000000000000007	0	0
42.600000000000001	11	0	0
42.600000000000001	9.5999999999999996	0	0
41.149999999999999	10.800000000000001	0	0
41.149999999999999	9.8000000000000007	0	0
41.450000000000003	10.800000000000001	0	0
41.450000000000003	9.8000000000000007	0	0
42.399999999999999	10.800000000000001	0	0
42.399999999999999	9.8000000000000007	0	0
41.149999999999999	10.4	0	0
41.149999999999999	10.199999999999999	0	0
41.450000000000003	10.4	0	0
41.450000000000003	10.199999999999999	0	0
41	10.4	0	0
41	10.199999999999999	0	0
41.600000000000001	10.4	0	0
41.600000000000001	10.199999999999999	0	0
42.399999999999999	10.6	0	0
42.399999999999999	10	0	0
42.600000000000001	10.6	0	0
42.600000000000001	10	0	0
42.75	10.6	0	0
42.75	10	0	0
42.259999999999998	10.6	0	0
42.259999999999998	10	0	0
36.659999999999997	12.42	0	0
36.659999999999997	8.3800000000000008	0	0
46.020000000000003	8.4100000000000001	0	0
46.060000000000002	12.449999999999999	0	0
40.200000000000003	10.4	0	0
40	10.4	0	0
40.200000000000003	10.5	0	0
40	10.5	0	0
[NumSegments] = 40
1	33	-1	0	0	0
2	34	-1	0	0	0
0	4	-1	0	0	0
1	5	-1	0	0	0
5	23	-1	0	0	0
2	6	-1	0	0	0
6	12	-1	0	0	0
7	3	-1	0	0	0
8	14	-1	0	0	0
8	10	-1	0	0	0
10	20	-1	0	0	0
11	9	-1	0	0	0
12	13	-1	0	0	0
13	7	-1	0	0	0
14	15	-1	0	0	0
15	9	-1	0	0	0
16	12	-1	0	0	0
16	17	-1	0	0	0
17	13	-1	0	0	0
14	18	-1	0	0	0
18	19	-1	0	0	0
19	15	-1	0	0	0
20	21	-1	0	0	0
21	11	-1	0	0	0
22	4	-1	0	0	0
23	22	-1	0	0	0
22	24	-1	0	0	0
24	25	-1	0	0	0
25	23	-1	0	0	0
26	20	-1	0	0	0
26	27	-1	0	0	0
27	21	-1	0	0	0
28	29	-1	1	0	0
29	30	-1	1	0	0
28	31	-1	1	0	0
31	30	-1	1	0	0
32	3	-1	0	0	0
33	32	-1	0	0	0
35	0	-1	0	0	0
35	34	-1	0	0	0
[NumArcSegments] = 0
[NumHoles] = 0
[NumBlockLabels] = 7
40.469999999999999	10.539999999999999	1	-1	0	0	0	1	0
41.740000000000002	10.31	1	-1	0	0	0	1	0
41.289999999999999	10.859999999999999	2	-1	0	0	0	1	0
41.079999999999998	10.32	5	-1	1	0	0	150	0
41.490000000000002	10.279999999999999	5	-1	1	0	0	150	0
42.299999999999997	10.460000000000001	5	-1	2	0	0	-300	0
42.689999999999998	10.220000000000001	5	-1	2	0	0	-300	0
